Circuit: * C:\Users\giuli\Desktop\giufla\projectSineWave\reports\senoPWM.asc

Fatal Error: Could not open file "c:\users\garripoli\desktop\giufla\projectsinewave\python\datiltspice_fin.txt" in PWL

